[General]
network = NetworkHeterogenous
parallel-simulation = false
sim-time-limit = 60.5s
repeat = 10

**.scalar-recording = false
**.bin-recording = false
# Timesynchronisation
*.*.hasTimeSynchronization = false

# routing
**.configuratortwo.netmaskRoutes = ""
**.configuratortwo.addSubnetRoutes = false
**.configuratortwo.addDefaultRoutes = false


# Interface
**.fcsMode = "computed"
**.crcMode = "computed"
*.*.ethernet.typename = "EthernetLayer"
*.*.ethernet1.typename = "EthernetLayer"
*.*.eth[*].typename = "LayeredEthernetInterface"
*.*.eth1.typename = "LayeredEthernetInterface"
*.*.custom_ethgate[*].typename = "LayeredEthernetInterface"
*.**.bitrate = 1Gbps


#MacTables and schedule
*.dsttUe*.macForwardingTableConfigurator.typename = ""
*.Talker*.interfaceTable = [{address:"dsttUe*", interface:"eth0"}, {address:"Listener*", interface:"eth0"}]

# Connect each UE to the gNB
*.numUe = 48
**.macCellId = 1
**.masterId = 1
**.nrMacCellId = 1
**.nrMasterId = 1
**.mac.schedulingDisciplineDl = "MAXCI" 

#Visualisation
*.**.clock.displayStringTextFormat = "diff:%d"
*.visualizer.typename = "IntegratedMultiCanvasVisualizer"
*.visualizer.infoVisualizer.displayInfos = true
*.visualizer.dataLinkVisualizer[0].displayLinks = true
*.visualizer.dataLinkVisualizer[0].activityLevel = "protocol"
*.ipvisualizer.*.interfaceTableVisualizer.displayInterfaceTables = true
*.interfaceTable.displayAddresses = True
*.visualizer.*.interfaceTableVisualizer.displayInterfaceTables = true

# 5G Configurations
#**.fbPeriod = 100tti # TO BE CHANGED
*.*.cellularNic.LteChannelModelType = "NRChannelModel_3GPP38_901"
*.gnb*.**.harqFbEvaluationTimer = 1
*.useQoSModel = true
*.packetDropEnabled = true # drop DC-GBR packets after deadline exceeded


*.Talker*.numApps = 48
*.Talker*.app[*].typename = "UdpBasicApp"
*.Talker*.app[*].destAddresses = "Listener"
*.Talker0.app[0].destPort = 100
*.Talker0.app[1].destPort = 101
*.Talker0.app[2].destPort = 102
*.Talker0.app[3].destPort = 103
*.Talker0.app[4].destPort = 104
*.Talker0.app[5].destPort = 105
*.Talker0.app[6].destPort = 106
*.Talker0.app[7].destPort = 107
*.Talker0.app[8].destPort = 108
*.Talker0.app[9].destPort = 109
*.Talker0.app[10].destPort = 110
*.Talker0.app[11].destPort = 111
*.Talker0.app[12].destPort = 112
*.Talker0.app[13].destPort = 113
*.Talker0.app[14].destPort = 114
*.Talker0.app[15].destPort = 115
*.Talker0.app[16].destPort = 116
*.Talker0.app[17].destPort = 117
*.Talker0.app[18].destPort = 118
*.Talker0.app[19].destPort = 119
*.Talker0.app[20].destPort = 120
*.Talker0.app[21].destPort = 121
*.Talker0.app[22].destPort = 122
*.Talker0.app[23].destPort = 123
*.Talker0.app[24].destPort = 124
*.Talker0.app[25].destPort = 125
*.Talker0.app[26].destPort = 126
*.Talker0.app[27].destPort = 127
*.Talker0.app[28].destPort = 128
*.Talker0.app[29].destPort = 129
*.Talker0.app[30].destPort = 130
*.Talker0.app[31].destPort = 131
*.Talker0.app[32].destPort = 132
*.Talker0.app[33].destPort = 133
*.Talker0.app[34].destPort = 134
*.Talker0.app[35].destPort = 135
*.Talker0.app[36].destPort = 136
*.Talker0.app[37].destPort = 137
*.Talker0.app[38].destPort = 138
*.Talker0.app[39].destPort = 139
*.Talker0.app[40].destPort = 140
*.Talker0.app[41].destPort = 141
*.Talker0.app[42].destPort = 142
*.Talker0.app[43].destPort = 143
*.Talker0.app[44].destPort = 144
*.Talker0.app[45].destPort = 145
*.Talker0.app[46].destPort = 146
*.Talker0.app[47].destPort = 147




*.Listener.numApps = 48
*.Listener.app[*].typename = "UdpSink"
*.Listener.app[0].localPort = 100
*.Listener.app[1].localPort = 101
*.Listener.app[2].localPort = 102
*.Listener.app[3].localPort = 103
*.Listener.app[4].localPort = 104
*.Listener.app[5].localPort = 105
*.Listener.app[6].localPort = 106
*.Listener.app[7].localPort = 107
*.Listener.app[8].localPort = 108
*.Listener.app[9].localPort = 109
*.Listener.app[10].localPort = 110
*.Listener.app[11].localPort = 111
*.Listener.app[12].localPort = 112
*.Listener.app[13].localPort = 113
*.Listener.app[14].localPort = 114
*.Listener.app[15].localPort = 115
*.Listener.app[16].localPort = 116
*.Listener.app[17].localPort = 117
*.Listener.app[18].localPort = 118
*.Listener.app[19].localPort = 119
*.Listener.app[20].localPort = 120
*.Listener.app[21].localPort = 121
*.Listener.app[22].localPort = 122
*.Listener.app[23].localPort = 123
*.Listener.app[24].localPort = 124
*.Listener.app[25].localPort = 125
*.Listener.app[26].localPort = 126
*.Listener.app[27].localPort = 127
*.Listener.app[28].localPort = 128
*.Listener.app[29].localPort = 129
*.Listener.app[30].localPort = 130
*.Listener.app[31].localPort = 131
*.Listener.app[32].localPort = 132
*.Listener.app[33].localPort = 133
*.Listener.app[34].localPort = 134
*.Listener.app[35].localPort = 135
*.Listener.app[36].localPort = 136
*.Listener.app[37].localPort = 137
*.Listener.app[38].localPort = 138
*.Listener.app[39].localPort = 139
*.Listener.app[40].localPort = 140
*.Listener.app[41].localPort = 141
*.Listener.app[42].localPort = 142
*.Listener.app[43].localPort = 143
*.Listener.app[44].localPort = 144
*.Listener.app[45].localPort = 145
*.Listener.app[46].localPort = 146
*.Listener.app[47].localPort = 147

**.*packetSent*.vector-recording = true
**.*packetReceived*.vector-recording = true
**.*harqErrorRateUlPeriodic*.vector-recording = true
**.*selectedMcs*.vector-recording = true
**.*averageCqiUl*.vector-recording = true
**.*endToEndDelay*.vector-recording = true
**.*measuredSinrUl*.vector-recording = true
**.*distance*.vector-recording = true
*.gnb.cellularNic.mac.macCGRescheduled.vector-recording = true 
*.gnb.cellularNic.mac.macCGRescheduled*.vector-recording = true 
*.gnb.cellularNic.mac.macCGRescheduledSignal_.vector-recording = true 
**.*macCGRescheduled_*.vector-recording = true
**.*avgServedBlocksUl*.vector-recording = true
**.*harq*.vector-recording = true
**.*throughput*.vector-recording = true

**.vector-recording = false

# enable 802.1q
*.*.ieee8021q.typename = "Ieee8021qProtocol"
*.**.macLayer.queue.numTrafficClasses = 8

*.**.streamIdentifier.identifier.mapping = [
    {stream: "tsn7_UE0*", packetFilter: expr(udp.destPort == 100)},
	{stream: "tsn7_UE1*", packetFilter: expr(udp.destPort == 101)},
    {stream: "tsn7_UE2*", packetFilter: expr(udp.destPort == 102)},
	{stream: "tsn7_UE3*", packetFilter: expr(udp.destPort == 103)},
    {stream: "tsn7_UE4*", packetFilter: expr(udp.destPort == 104)},
	{stream: "tsn7_UE5*", packetFilter: expr(udp.destPort == 105)},
    {stream: "tsn7_UE6*", packetFilter: expr(udp.destPort == 106)},
	{stream: "tsn7_UE7*", packetFilter: expr(udp.destPort == 107)},
    {stream: "tsn6_UE8*", packetFilter: expr(udp.destPort == 108)},
	{stream: "tsn6_UE9*", packetFilter: expr(udp.destPort == 109)},
	{stream: "tsn6_UE10*", packetFilter: expr(udp.destPort == 110)},
    {stream: "tsn6_UE11*", packetFilter: expr(udp.destPort == 111)},
	{stream: "tsn6_UE12*", packetFilter: expr(udp.destPort == 112)},
    {stream: "tsn6_UE13*", packetFilter: expr(udp.destPort == 113)},
	{stream: "tsn6_UE14*", packetFilter: expr(udp.destPort == 114)},
	{stream: "tsn6_UE15*", packetFilter: expr(udp.destPort == 115)},
	{stream: "tsn5_UE16*", packetFilter: expr(udp.destPort == 116)},
	{stream: "tsn5_UE17*", packetFilter: expr(udp.destPort == 117)},
	{stream: "tsn5_UE18*", packetFilter: expr(udp.destPort == 118)},
	{stream: "tsn5_UE19*", packetFilter: expr(udp.destPort == 119)},
	{stream: "tsn5_UE20*", packetFilter: expr(udp.destPort == 120)},
	{stream: "tsn5_UE21*", packetFilter: expr(udp.destPort == 121)},
	{stream: "tsn5_UE22*", packetFilter: expr(udp.destPort == 122)},
	{stream: "tsn5_UE23*", packetFilter: expr(udp.destPort == 123)},
	{stream: "tsn4_UE24*", packetFilter: expr(udp.destPort == 124)},
	{stream: "tsn4_UE25*", packetFilter: expr(udp.destPort == 125)},
	{stream: "tsn4_UE26*", packetFilter: expr(udp.destPort == 126)},
	{stream: "tsn4_UE27*", packetFilter: expr(udp.destPort == 127)},
	{stream: "tsn4_UE28*", packetFilter: expr(udp.destPort == 128)},
	{stream: "tsn4_UE29*", packetFilter: expr(udp.destPort == 129)},
	{stream: "tsn4_UE30*", packetFilter: expr(udp.destPort == 130)},
	{stream: "tsn4_UE31*", packetFilter: expr(udp.destPort == 131)},
	{stream: "tsn1_UE32*", packetFilter: expr(udp.destPort == 132)},
	{stream: "tsn1_UE33*", packetFilter: expr(udp.destPort == 133)},
	{stream: "tsn1_UE34*", packetFilter: expr(udp.destPort == 134)},
	{stream: "tsn1_UE35*", packetFilter: expr(udp.destPort == 135)},
	{stream: "tsn1_UE36*", packetFilter: expr(udp.destPort == 136)},
	{stream: "tsn1_UE37*", packetFilter: expr(udp.destPort == 137)},
	{stream: "tsn1_UE38*", packetFilter: expr(udp.destPort == 138)},
	{stream: "tsn1_UE39*", packetFilter: expr(udp.destPort == 139)},
	{stream: "tsn0_UE40*", packetFilter: expr(udp.destPort == 140)},
	{stream: "tsn0_UE41*", packetFilter: expr(udp.destPort == 141)},
	{stream: "tsn0_UE42*", packetFilter: expr(udp.destPort == 142)},
	{stream: "tsn0_UE43*", packetFilter: expr(udp.destPort == 143)},
	{stream: "tsn0_UE44*", packetFilter: expr(udp.destPort == 144)},
	{stream: "tsn0_UE45*", packetFilter: expr(udp.destPort == 145)},
	{stream: "tsn0_UE46*", packetFilter: expr(udp.destPort == 146)},
	{stream: "tsn0_UE47*", packetFilter: expr(udp.destPort == 147)}]

*.**.streamCoder.encoder.mapping = [ 
	{stream: "tsn7_UE0*", vlan: 100, pcp: 7},
	{stream: "tsn7_UE1*", vlan: 101, pcp: 7},
    {stream: "tsn7_UE2*", vlan: 102, pcp: 7},
	{stream: "tsn7_UE3*", vlan: 103, pcp: 7},
    {stream: "tsn7_UE4*", vlan: 104, pcp: 7},
	{stream: "tsn7_UE5*", vlan: 105, pcp: 7},
    {stream: "tsn7_UE6*", vlan: 106, pcp: 7},
	{stream: "tsn7_UE7*", vlan: 107, pcp: 7},
    {stream: "tsn6_UE8*", vlan: 108, pcp: 6},
	{stream: "tsn6_UE9*", vlan: 109, pcp: 6},
	{stream: "tsn6_UE10*", vlan: 110, pcp: 6},
    {stream: "tsn6_UE11*", vlan: 111, pcp: 6},
	{stream: "tsn6_UE12*", vlan: 112, pcp: 6},
    {stream: "tsn6_UE13*", vlan: 113, pcp: 6},
	{stream: "tsn6_UE14*", vlan: 114, pcp: 6},
	{stream: "tsn6_UE15*", vlan: 115, pcp: 6},
	{stream: "tsn5_UE16*", vlan: 116, pcp: 5},
	{stream: "tsn5_UE17*", vlan: 117, pcp: 5},
	{stream: "tsn5_UE18*", vlan: 118, pcp: 5},
	{stream: "tsn5_UE19*", vlan: 119, pcp: 5},
	{stream: "tsn5_UE20*", vlan: 120, pcp: 5},
	{stream: "tsn5_UE21*", vlan: 121, pcp: 5},
	{stream: "tsn5_UE22*", vlan: 122, pcp: 5},
	{stream: "tsn5_UE23*", vlan: 123, pcp: 5},
	{stream: "tsn4_UE24*", vlan: 124, pcp: 4},
	{stream: "tsn4_UE25*", vlan: 125, pcp: 4},
	{stream: "tsn4_UE26*", vlan: 126, pcp: 4},
	{stream: "tsn4_UE27*", vlan: 127, pcp: 4},
	{stream: "tsn4_UE28*", vlan: 128, pcp: 4},
	{stream: "tsn4_UE29*", vlan: 129, pcp: 4},
	{stream: "tsn4_UE30*", vlan: 130, pcp: 4},
	{stream: "tsn4_UE31*", vlan: 131, pcp: 4},
	{stream: "tsn1_UE32*", vlan: 132, pcp: 1},
	{stream: "tsn1_UE33*", vlan: 133, pcp: 1},
	{stream: "tsn1_UE34*", vlan: 134, pcp: 1},
	{stream: "tsn1_UE35*", vlan: 135, pcp: 1},
	{stream: "tsn1_UE36*", vlan: 136, pcp: 1},
	{stream: "tsn1_UE37*", vlan: 137, pcp: 1},
	{stream: "tsn1_UE38*", vlan: 138, pcp: 1},
	{stream: "tsn1_UE39*", vlan: 139, pcp: 1},
	{stream: "tsn0_UE40*", vlan: 140, pcp: 0},
	{stream: "tsn0_UE41*", vlan: 141, pcp: 0},
	{stream: "tsn0_UE42*", vlan: 142, pcp: 0},
	{stream: "tsn0_UE43*", vlan: 143, pcp: 0},
	{stream: "tsn0_UE44*", vlan: 144, pcp: 0},
	{stream: "tsn0_UE45*", vlan: 145, pcp: 0},
	{stream: "tsn0_UE46*", vlan: 146, pcp: 0},
	{stream: "tsn0_UE47*", vlan: 147, pcp: 0}]

*.SWTalker.bridging.vlanPolicy.typename = "VlanPolicyLayer"

*.SWTalker.bridging.vlanPolicy.inboundFilter.acceptedVlanIds = {
    "eth0" : [100,101,102,103,104,105,106,107,108,109,110,111,112,113,114,115,116,117,118,119,120,121,122,123,124,125,126,127,128,129,130,131,132,133,134,135,136,137,138,139,140,141,142,143,144,145,146,147],
    "eth1" : [100],  
    "eth2" : [101],   
    "eth3" : [102],
    "eth4" : [103],   
    "eth5" : [104],
    "eth6" : [105],   
    "eth7" : [106],
    "eth8" : [107],   
    "eth9" : [108],
    "eth10" : [109],   
    "eth11" : [110],
    "eth12" : [111],   
    "eth13" : [112],
    "eth14" : [113],   
    "eth15" : [114],
    "eth16" : [115],   
    "eth17" : [116],
    "eth18" : [117],   
    "eth19" : [118],
    "eth20" : [119],   
    "eth21" : [120],	
	"eth22" : [121],
    "eth23" : [122],   
    "eth24" : [123],
    "eth25" : [124],   
    "eth26" : [125],
    "eth27" : [126],   
	"eth28" : [127],
	"eth29" : [128],
	"eth30" : [129],
	"eth31" : [130],
	"eth32" : [131],
	"eth33" : [132],
	"eth34" : [133],
	"eth35" : [134],
	"eth36" : [135],
	"eth37" : [136],
	"eth38" : [137],
	"eth39" : [138],
	"eth40" : [139],
	"eth41" : [140],
	"eth42" : [141],
	"eth43" : [142],
	"eth44" : [143],
	"eth45" : [144],
	"eth46" : [145],
	"eth47" : [146],
	"eth48" : [147]}

*.SWTalker.bridging.vlanPolicy.outboundFilter.acceptedVlanIds = {
    "eth0" : [100,101,102,103,104,105,106,107,108,109,110,111,112,113,114,115,116,117,118,119,120,121,122,123,124,125,126,127,128,129,130,131,132,133,134,135,136,137,138,139,140,141,142,143,144,145,146,147], 
    "eth1" : [100],  
    "eth2" : [101],   
    "eth3" : [102],
    "eth4" : [103],   
    "eth5" : [104],
    "eth6" : [105],   
    "eth7" : [106],
    "eth8" : [107],   
    "eth9" : [108],
    "eth10" : [109],   
    "eth11" : [110],
    "eth12" : [111],   
    "eth13" : [112],
    "eth14" : [113],   
    "eth15" : [114],
    "eth16" : [115],   
    "eth17" : [116],
    "eth18" : [117],   
    "eth19" : [118],
    "eth20" : [119],   
    "eth21" : [120],	
	"eth22" : [121],
    "eth23" : [122],   
    "eth24" : [123],
    "eth25" : [124],   
    "eth26" : [125],
    "eth27" : [126],   
	"eth28" : [127],
	"eth29" : [128],
	"eth30" : [129],
	"eth31" : [130],
	"eth32" : [131],
	"eth33" : [132],
	"eth34" : [133],
	"eth35" : [134],
	"eth36" : [135],
	"eth37" : [136],
	"eth38" : [137],
	"eth39" : [138],
	"eth40" : [139],
	"eth41" : [140],
	"eth42" : [141],
	"eth43" : [142],
	"eth44" : [143],
	"eth45" : [144],
	"eth46" : [145],
	"eth47" : [146],
	"eth48" : [147]}

*.TASSwitch0*.bridging.vlanPolicy.typename = "VlanPolicyLayer"
*.TASSwitch0*.bridging.vlanPolicy.outboundFilter.acceptedVlanIds = {
    "eth0" : [100,101,102,103,104,105,106,107,108,109,110,111,112,113,114,115,116,117,118,119,120,121,122,123,124,125,126,127,128,129,130,131,132,133,134,135,136,137,138,139,140,141,142,143,144,145,146,147],
    "eth1" : [100,101,102,103,104,105,106,107,108,109,110,111,112,113,114,115,116,117,118,119,120,121,122,123,124,125,126,127,128,129,130,131,132,133,134,135,136,137,138,139,140,141,142,143,144,145,146,147]}
*.TASSwitch0*.bridging.vlanPolicy.inboundFilter.acceptedVlanIds = {
    "eth0" : [100,101,102,103,104,105,106,107,108,109,110,111,112,113,114,115,116,117,118,119,120,121,122,123,124,125,126,127,128,129,130,131,132,133,134,135,136,137,138,139,140,141,142,143,144,145,146,147],
    "eth1" : [100,101,102,103,104,105,106,107,108,109,110,111,112,113,114,115,116,117,118,119,120,121,122,123,124,125,126,127,128,129,130,131,132,133,134,135,136,137,138,139,140,141,142,143,144,145,146,147]}


# enable egress traffic shaping
*.nwtt.hasOutgoingStreams = true # ensures retagging of Qtag
*.nwtt.hasEgressTrafficShaping = true 
*.Talker*.hasOutgoingStreams = true

*.SWTalker*.bridging.directionReverser.reverser.excludeEncapsulationProtocols = ["ieee8021qctag"]

# Component carrier
*.carrierAggregation.numComponentCarriers = 1
*.carrierAggregation.componentCarrier[0].numBands = 51
*.carrierAggregation.componentCarrier[0].numerologyIndex = 1
*.carrierAggregation.componentCarrier[0].carrierFrequency = 5.9GHz
*.carrierAggregation.componentCarrier[0].useTdd = true
*.carrierAggregation.componentCarrier[0].tddNumSymbolsDl = 6 
*.carrierAggregation.componentCarrier[0].tddNumSymbolsUl = 4
*.carrierAggregation.componentCarrier[0].tddNumSlotsDl = 7
*.carrierAggregation.componentCarrier[0].tddNumSlotsUl = 2
*.carrierAggregation.componentCarrier[0].tddPatternPeriodicity = 10 

*.Talker*.app[0..7].messageLength = int(uniform(22, 472))*1B
*.Talker*.app[8..15].messageLength = 100B 
*.Talker*.app[16..23].messageLength = 200B 
*.Talker*.app[24..31].messageLength = int(uniform(72, 172))*1B
*.Talker*.app[32..39].messageLength = int(uniform(972, 1472))*1B
*.Talker*.app[40..47].messageLength = int(uniform(1272, 1472))*1B

*.Talker*.app[0..7].sendInterval = 50ms
*.Talker*.app[8..15].sendInterval = 5ms
*.Talker*.app[16..23].sendInterval = 8ms
*.Talker*.app[24..31].sendInterval = uniform(10ms,50ms)
*.Talker*.app[32..39].sendInterval = 20.83ms
*.Talker*.app[40..47].sendInterval = exponential(25ms) 


*.Talker*.app[0..7].startTime = 120ms+uniform(0ms,50ms)
*.Talker0.app[8..15].startTime = 120ms+18.95ms
*.Talker*.app[16..23].startTime = 120ms+18.45ms
*.Talker*.app[24..47].startTime = 120ms+uniform(0ms,50ms)

*.Talker*.app[*].stopTime = 120ms+60s

*.Talker*.app[0].packetName = "tsn7_UE0"
*.Talker*.app[1].packetName = "tsn7_UE1"
*.Talker*.app[2].packetName = "tsn7_UE2"
*.Talker*.app[3].packetName = "tsn7_UE3"
*.Talker*.app[4].packetName = "tsn7_UE4"
*.Talker*.app[5].packetName = "tsn7_UE5"
*.Talker*.app[6].packetName = "tsn7_UE6"
*.Talker*.app[7].packetName = "tsn7_UE7"
*.Talker*.app[8].packetName = "tsn6_UE8"
*.Talker*.app[9].packetName = "tsn6_UE9"
*.Talker*.app[10].packetName = "tsn6_UE10"
*.Talker*.app[11].packetName = "tsn6_UE11"
*.Talker*.app[12].packetName = "tsn6_UE12"
*.Talker*.app[13].packetName = "tsn6_UE13"
*.Talker*.app[14].packetName = "tsn6_UE14"
*.Talker*.app[15].packetName = "tsn6_UE15"
*.Talker*.app[16].packetName = "tsn5_UE16"
*.Talker*.app[17].packetName = "tsn5_UE17"
*.Talker*.app[18].packetName = "tsn5_UE18"
*.Talker*.app[19].packetName = "tsn5_UE19"
*.Talker*.app[20].packetName = "tsn5_UE20"
*.Talker*.app[21].packetName = "tsn5_UE21"
*.Talker*.app[22].packetName = "tsn5_UE22"
*.Talker*.app[23].packetName = "tsn5_UE23"
*.Talker*.app[24].packetName = "tsn4_UE24"
*.Talker*.app[25].packetName = "tsn4_UE25"
*.Talker*.app[26].packetName = "tsn4_UE26"
*.Talker*.app[27].packetName = "tsn4_UE27"
*.Talker*.app[28].packetName = "tsn4_UE28"
*.Talker*.app[29].packetName = "tsn4_UE29"
*.Talker*.app[30].packetName = "tsn4_UE30"
*.Talker*.app[31].packetName = "tsn4_UE31"
*.Talker*.app[32].packetName = "tsn1_UE32"
*.Talker*.app[33].packetName = "tsn1_UE33"
*.Talker*.app[34].packetName = "tsn1_UE34"
*.Talker*.app[35].packetName = "tsn1_UE35"
*.Talker*.app[36].packetName = "tsn1_UE36"
*.Talker*.app[37].packetName = "tsn1_UE37"
*.Talker*.app[38].packetName = "tsn1_UE38"
*.Talker*.app[39].packetName = "tsn1_UE39"
*.Talker*.app[40].packetName = "tsn0_UE40"
*.Talker*.app[41].packetName = "tsn0_UE41"
*.Talker*.app[42].packetName = "tsn0_UE42"
*.Talker*.app[43].packetName = "tsn0_UE43"
*.Talker*.app[44].packetName = "tsn0_UE44"
*.Talker*.app[45].packetName = "tsn0_UE45"
*.Talker*.app[46].packetName = "tsn0_UE46"
*.Talker*.app[47].packetName = "tsn0_UE47"


*.dsttUe8.**.maxHarqRtx = 0
*.dsttUe9.**.maxHarqRtx = 0
*.dsttUe10.**.maxHarqRtx = 0
*.dsttUe11.**.maxHarqRtx = 0
*.dsttUe12.**.maxHarqRtx = 0
*.dsttUe13.**.maxHarqRtx = 0
*.dsttUe14.**.maxHarqRtx = 0
*.dsttUe15.**.maxHarqRtx = 0 
*.dsttUe16.**.maxHarqRtx = 0
*.dsttUe17.**.maxHarqRtx = 0
*.dsttUe18.**.maxHarqRtx = 0
*.dsttUe19.**.maxHarqRtx = 0
*.dsttUe20.**.maxHarqRtx = 0
*.dsttUe21.**.maxHarqRtx = 0
*.dsttUe22.**.maxHarqRtx = 0
*.dsttUe23.**.maxHarqRtx = 0 


**.pilotMode = "ROBUST_CQI"
**.gnb.cellularNic.**.um_rx_timeout = 35ms # default values as in 9.2.1 of 38.331

*.gnb.cellularNic.channelModel[0].scenario = "INDOOR_FACTORY_DL"
*.dsttUe*.cellularNic.nrChannelModel[0].scenario = "INDOOR_FACTORY_DL" 

**.mobility.constraintAreaMaxX = 300m
**.mobility.constraintAreaMaxY = 150m
**.mobility.constraintAreaMinX = 0m
**.mobility.constraintAreaMinY = 0m
**.mobility.constraintAreaMinZ = 0m
**.mobility.constraintAreaMaxZ = 0m
**.mobility.initFromDisplayString = false

**.tolerateMaxDistViolation_ = false
*.gnb.mobility.initialX = 1m
*.gnb.mobility.initialY = 1m

**.ueTxPower = 24dBm
**.eNodeBTxPower = 24dBm
**.shadowing = true
**.fading = true

**.fading_type = "JAKES"
**.uplink_interference = true

# ue position
*.dsttUe*.mobility.typename = "RandomWaypointMobility"
*.dsttUe*.mobility.initialX = uniform(0m, 299m)
*.dsttUe*.mobility.initialY = uniform(0m, 149m)
*.dsttUe*.mobility.speed = 5mps

**.displayGateSchedules = true
**.gateScheduleVisualizer.height = 16
**.gateScheduleVisualizer.placementHint = "top"
*.TASSwitch0.hasEgressTrafficShaping = true
*.tsnSwitchListener.hasEgressTrafficShaping = true

**.server.processingTime = 0s
**.enableImplicitGuardBand = false

*.TASSwitch0.eth[1].macLayer.queue.transmissionGate[7].offset = 1ms
*.TASSwitch0.eth[1].macLayer.queue.transmissionGate[7].durations = [3.45ms, 0.05ms, 1.45ms, 0.05ms, 4.95ms, 0.05ms, 1.45ms, 0.05ms,
 3.45ms, 0.05ms, 4.45ms, 0.05ms, 0.45ms, 0.05ms, 4.95ms, 0.05ms,
 2.45ms, 0.05ms, 2.45ms, 0.05ms, 4.95ms, 0.05ms, 0.45ms, 0.55ms,
 3.95ms, 0.05ms]

# SW1-port9, priority 6
*.TASSwitch0.eth[1].macLayer.queue.transmissionGate[6].initiallyOpen = false
*.TASSwitch0.eth[1].macLayer.queue.transmissionGate[6].offset = 1ms
*.TASSwitch0.eth[1].macLayer.queue.transmissionGate[6].durations = [4.95ms, 50us, 4.95ms, 50us, 4.95ms, 50us, 4.95ms, 50us, 4.95ms, 50us, 4.95ms, 50us, 4.95ms, 50us, 4.95ms, 50us]

*.TASSwitch0.eth[1].macLayer.queue.transmissionGate[5].initiallyOpen = false
*.TASSwitch0.eth[1].macLayer.queue.transmissionGate[5].offset = 5.5ms
*.TASSwitch0.eth[1].macLayer.queue.transmissionGate[5].durations = [7.95ms, 50us, 7.95ms, 50us, 7.95ms, 50us, 7.95ms, 50us, 7.95ms, 50us]

*.tsnSwitchListener.eth[0].macLayer.queue.transmissionGate[7].durations = [0.341ms, 50us, 4.55ms, 50us, 3.35ms, 50us, 1.55ms, 50us,
 4.95ms, 50us, 1.35ms, 50us, 3.55ms, 50us, 4.35ms, 50us,0.55ms, 50us,4.95ms, 50us,2.35ms, 50us, 2.55ms, 50us, 4.95ms, 0.059ms]


# SW2-port2, priority 6
*.tsnSwitchListener.eth[0].macLayer.queue.transmissionGate[6].initiallyOpen = false
*.tsnSwitchListener.eth[0].macLayer.queue.transmissionGate[6].offset = 0.009ms 
*.tsnSwitchListener.eth[0].macLayer.queue.transmissionGate[6].durations = [4.95ms, 50us, 4.95ms, 50us, 4.95ms, 50us, 4.95ms, 50us, 4.95ms, 50us, 4.95ms, 50us, 4.95ms, 50us, 4.95ms, 50us]

*.tsnSwitchListener.eth[0].macLayer.queue.transmissionGate[5].initiallyOpen = false
*.tsnSwitchListener.eth[0].macLayer.queue.transmissionGate[5].offset = 7.609ms 
*.tsnSwitchListener.eth[0].macLayer.queue.transmissionGate[5].durations = [7.95ms, 50us, 7.95ms, 50us, 7.95ms, 50us, 7.95ms, 50us, 7.95ms, 50us]

[Config Priority]
**.globalData.qosMappingConfig = xmldoc("inputConfig/TrafficPcpQfiMappingTSCAI.xml")
**.mac.schedulingDisciplineUl = "MIXED"
**.mac.dynSchedulingDiscipline = "DQOS"
**.mac.minMcsIndex = 5
**.*.MinBlockAmount = 5

[Config MAXCI]
**.globalData.qosMappingConfig = xmldoc("inputConfig/TrafficPcpQfiMappingTSCAI.xml")
**.mac.schedulingDisciplineUl = "MIXED"
**.mac.dynSchedulingDiscipline = "MAXCI"
**.mac.minMcsIndex = 5
**.*.MinBlockAmount = 5

[Config PF]
**.globalData.qosMappingConfig = xmldoc("inputConfig/TrafficPcpQfiMappingTSCAI.xml")
**.mac.schedulingDisciplineUl = "MIXED"
**.mac.dynSchedulingDiscipline = "PF"
**.mac.minMcsIndex = 5
**.*.MinBlockAmount = 5


[Config DRR]
**.globalData.qosMappingConfig = xmldoc("inputConfig/TrafficPcpQfiMappingTSCAI.xml")
**.mac.schedulingDisciplineUl = "MIXED"
**.mac.dynSchedulingDiscipline = "DRR"
**.mac.minMcsIndex = 5
**.*.MinBlockAmount = 5


[Config Priority_MDBV]
**.globalData.qosMappingConfig = xmldoc("inputConfig/TrafficPcpQfiMappingTSCAI_MDBV.xml")
**.mac.schedulingDisciplineUl = "MIXED"
**.mac.dynSchedulingDiscipline = "DQOS"
**.mac.minMcsIndex = 5
**.*.MinBlockAmount = 5

[Config MAXCI_MDBV]
**.globalData.qosMappingConfig = xmldoc("inputConfig/TrafficPcpQfiMappingTSCAI_MDBV.xml")
**.mac.schedulingDisciplineUl = "MIXED"
**.mac.dynSchedulingDiscipline = "MAXCI"
**.mac.minMcsIndex = 5
**.*.MinBlockAmount = 5

[Config PF_MDBV]
**.globalData.qosMappingConfig = xmldoc("inputConfig/TrafficPcpQfiMappingTSCAI_MDBV.xml")
**.mac.schedulingDisciplineUl = "MIXED"
**.mac.dynSchedulingDiscipline = "PF"
**.mac.minMcsIndex = 5
**.*.MinBlockAmount = 5


[Config DRR_MDBV]
**.globalData.qosMappingConfig = xmldoc("inputConfig/TrafficPcpQfiMappingTSCAI_MDBV.xml")
**.mac.schedulingDisciplineUl = "MIXED"
**.mac.dynSchedulingDiscipline = "DRR"
**.mac.minMcsIndex = 5
**.*.MinBlockAmount = 5